*HEADING
Single element test for step11_rate_100
*NODE
1, 0., 0., 0.
2, 1., 0., 0.
3, 1., 1., 0.
4, 0., 1., 0.
5, 0., 0., 1.
6, 1., 0., 1.
7, 1., 1., 1.
8, 0., 1., 1.
*ELEMENT, TYPE=C3D8H, ELSET=EA
1, 1, 2, 3, 4, 5, 6, 7, 8
*SOLID SECTION, ELSET=EA, MATERIAL=PRF_model
1.
*Material, name=PRF_model
*Hyperelastic,  NeoHooke,  Moduli=instantaneous 
549.6, 0.0 
*Viscoelastic, Nonlinear, NetworkId=1, SRatio=0.337060, Law=strain 
4.8828e-7, 3.13398, -0.551660 
*Viscoelastic, Nonlinear, NetworkId=2, SRatio=0.150654, Law=strain 
2.4414e-6, 4.91992, -0.746191 
*Viscoelastic, Nonlinear, NetworkId=3, SRatio=0.372607, Law=strain 
7.81403e-5, 3.801953, -0.616699
*AMPLITUDE, NAME=AMP_STRAIN
0.000000e+00, 0.000000e+00, 1.000000e-06, 2.800039e-05, 2.000000e-06, 5.500151e-05, 3.000000e-06, 8.300344e-05
4.000000e-06, 1.100061e-04, 5.000000e-06, 1.380095e-04, 6.000000e-06, 1.660138e-04, 7.000000e-06, 1.950190e-04
8.000000e-06, 2.230249e-04, 9.000000e-06, 2.510315e-04, 1.000000e-05, 2.790389e-04, 1.100000e-05, 3.070471e-04
1.200000e-05, 3.350561e-04, 1.300000e-05, 3.630659e-04, 1.400000e-05, 3.920768e-04, 1.500000e-05, 4.200882e-04
1.600000e-05, 4.481004e-04, 1.700000e-05, 4.761133e-04, 1.800000e-05, 5.041270e-04, 1.900000e-05, 5.321415e-04
2.000000e-05, 5.601568e-04, 2.100000e-05, 5.891735e-04, 2.200000e-05, 6.171904e-04, 2.300000e-05, 6.452081e-04
2.400000e-05, 6.732265e-04, 2.500000e-05, 7.002451e-04, 2.600000e-05, 7.272643e-04, 2.700000e-05, 7.542843e-04
2.800000e-05, 7.823058e-04, 2.900000e-05, 8.093273e-04, 3.000000e-05, 8.373504e-04, 3.100000e-05, 8.663751e-04
3.200000e-05, 8.964015e-04, 3.300000e-05, 9.284307e-04, 3.400000e-05, 9.614619e-04, 3.500000e-05, 9.964962e-04
3.600000e-05, 1.037538e-03, 3.700000e-05, 1.079582e-03, 3.800000e-05, 1.125633e-03, 3.900000e-05, 1.172687e-03
4.000000e-05, 1.220745e-03, 4.100000e-05, 1.272809e-03, 4.200000e-05, 1.325878e-03, 4.300000e-05, 1.382955e-03
4.400000e-05, 1.443040e-03, 4.500000e-05, 1.501126e-03, 4.600000e-05, 1.562219e-03, 4.700000e-05, 1.626321e-03
4.800000e-05, 1.695436e-03, 4.900000e-05, 1.766559e-03, 5.000000e-05, 1.841694e-03, 5.100000e-05, 1.918839e-03
5.200000e-05, 1.999997e-03, 5.300000e-05, 2.074148e-03, 5.400000e-05, 2.158326e-03, 5.500000e-05, 2.248524e-03
5.600000e-05, 2.343742e-03, 5.700000e-05, 2.442979e-03, 5.800000e-05, 2.547239e-03, 5.900000e-05, 2.656522e-03
6.000000e-05, 2.770832e-03, 6.100000e-05, 2.889166e-03, 6.200000e-05, 3.019550e-03, 6.300000e-05, 3.145938e-03
6.400000e-05, 3.275352e-03, 6.500000e-05, 3.404783e-03, 6.600000e-05, 3.536238e-03, 6.700000e-05, 3.668713e-03
6.800000e-05, 3.802210e-03, 6.900000e-05, 3.941748e-03, 7.000000e-05, 4.082310e-03, 7.100000e-05, 4.224900e-03
7.200000e-05, 4.369519e-03, 7.300000e-05, 4.514158e-03, 7.400000e-05, 4.658819e-03, 7.500000e-05, 4.803500e-03
7.600000e-05, 4.952222e-03, 7.700000e-05, 5.103981e-03, 7.800000e-05, 5.253753e-03, 7.900000e-05, 5.406563e-03
8.000000e-05, 5.563419e-03, 8.100000e-05, 5.724322e-03, 8.200000e-05, 5.889274e-03, 8.300000e-05, 6.043187e-03
8.400000e-05, 6.200142e-03, 8.500000e-05, 6.358128e-03, 8.600000e-05, 6.517145e-03, 8.700000e-05, 6.674174e-03
*STEP, INC=100000, NLGEOM=YES
*VISCO
8.7e-08, 8.7e-05, 1e-15, 4.35e-06
*BOUNDARY
1, 1, 3
4, 1, 1
4, 3, 3
8, 1, 1
5, 1, 2
2, 2, 3
6, 2, 2
2, 3, 3
3, 3, 3
*BOUNDARY, AMPLITUDE=AMP_STRAIN
2, 1, 1, 1.0
3, 1, 1, 1.0
6, 1, 1, 1.0
7, 1, 1, 1.0
*OUTPUT, FIELD, FREQUENCY=1
*ELEMENT OUTPUT
S, LE
*OUTPUT, HISTORY, FREQUENCY=1
*ELEMENT OUTPUT, ELSET=EA
S11, LE11
*NODE PRINT, FREQUENCY=0
*EL PRINT, FREQUENCY=1
S11, LE11
*END STEP
