*HEADING
Single element test for step11_relax_0100
*NODE
1, 0., 0., 0.
2, 1., 0., 0.
3, 1., 1., 0.
4, 0., 1., 0.
5, 0., 0., 1.
6, 1., 0., 1.
7, 1., 1., 1.
8, 0., 1., 1.
*ELEMENT, TYPE=C3D8H, ELSET=EA
1, 1, 2, 3, 4, 5, 6, 7, 8
*SOLID SECTION, ELSET=EA, MATERIAL=PRF_model
1.
*Material, name=PRF_model
*Hyperelastic,  NeoHooke,  Moduli=instantaneous 
549.6, 0.0 
*Viscoelastic, Nonlinear, NetworkId=1, SRatio=0.337060, Law=strain 
4.8828e-7, 3.13398, -0.551660 
*Viscoelastic, Nonlinear, NetworkId=2, SRatio=0.150654, Law=strain 
2.4414e-6, 4.91992, -0.746191 
*Viscoelastic, Nonlinear, NetworkId=3, SRatio=0.372607, Law=strain 
7.81403e-5, 3.801953, -0.616699
*AMPLITUDE, NAME=AMP_STRAIN
0.000000e+00, 0.000000e+00, 1.300000e-01, 4.300092e-05, 3.500000e-01, 1.280082e-04, 5.900000e-01, 2.040208e-04
7.700000e-01, 2.720370e-04, 9.500000e-01, 3.310548e-04, 1.150000e+00, 3.900761e-04, 1.330000e+00, 4.521022e-04
1.530000e+00, 5.151326e-04, 1.730000e+00, 5.781671e-04, 1.930000e+00, 6.472093e-04, 2.150000e+00, 7.152557e-04
2.350000e+00, 7.843074e-04, 2.550000e+00, 8.503614e-04, 2.750000e+00, 9.084124e-04, 2.950000e+00, 9.784784e-04
3.150000e+00, 1.037538e-03, 3.350000e+00, 1.108614e-03, 3.550000e+00, 1.178694e-03, 3.750000e+00, 1.235763e-03
3.950000e+00, 1.307854e-03, 4.150000e+00, 1.367935e-03, 4.350000e+00, 1.435029e-03, 4.550000e+00, 1.500124e-03
4.750000e+00, 1.567227e-03, 4.950000e+00, 1.630328e-03, 5.150000e+00, 1.697439e-03, 5.350000e+00, 1.757543e-03
5.550000e+00, 1.827668e-03, 5.750000e+00, 1.898800e-03, 5.950000e+00, 1.961922e-03, 6.150000e+00, 2.032062e-03
6.350000e+00, 2.099200e-03, 6.550000e+00, 2.162334e-03, 6.750000e+00, 2.235495e-03, 6.950000e+00, 2.294629e-03
7.150000e+00, 2.358778e-03, 7.350000e+00, 2.427943e-03, 7.550000e+00, 2.493103e-03, 7.750000e+00, 2.563280e-03
7.950000e+00, 2.627446e-03, 8.150000e+00, 2.693621e-03, 8.350000e+00, 2.769829e-03, 8.550000e+00, 2.835011e-03
8.750000e+00, 2.900197e-03, 8.950000e+00, 2.969400e-03, 9.150000e+00, 3.033592e-03, 9.350000e+00, 3.101801e-03
9.550000e+00, 3.174027e-03, 9.750000e+00, 3.242245e-03, 9.950000e+00, 3.315484e-03, 1.015000e+01, 3.375685e-03
1.035000e+01, 3.443917e-03, 1.055000e+01, 3.514160e-03, 1.075000e+01, 3.580394e-03, 1.095000e+01, 3.648640e-03
1.115000e+01, 3.722913e-03, 1.135000e+01, 3.786149e-03, 1.155000e+01, 3.857421e-03, 1.175000e+01, 3.925685e-03
1.195000e+01, 3.994959e-03, 1.215000e+01, 4.072269e-03, 1.235000e+01, 4.135528e-03, 1.255000e+01, 4.208832e-03
1.275000e+01, 4.280134e-03, 1.295000e+01, 4.350436e-03, 1.315000e+01, 4.422752e-03, 1.335000e+01, 4.494068e-03
1.355000e+01, 4.560367e-03, 1.375000e+01, 4.639730e-03, 1.395000e+01, 4.704029e-03, 1.415000e+01, 4.778380e-03
1.435000e+01, 4.849722e-03, 1.455000e+01, 4.923079e-03, 1.475000e+01, 4.997446e-03, 1.495000e+01, 5.068803e-03
1.515000e+01, 5.139160e-03, 1.535000e+01, 5.219575e-03, 1.555000e+01, 5.289943e-03, 1.575000e+01, 5.358305e-03
** ... 84 like lines cut
*STEP, INC=100000, NLGEOM=YES
*VISCO
0.32335, 323.35, 1e-15, 16.1675
*BOUNDARY
1, 1, 3
4, 1, 1
4, 3, 3
8, 1, 1
5, 1, 2
2, 2, 3
6, 2, 2
2, 3, 3
3, 3, 3
*BOUNDARY, AMPLITUDE=AMP_STRAIN
2, 1, 1, 1.0
3, 1, 1, 1.0
6, 1, 1, 1.0
7, 1, 1, 1.0
*OUTPUT, FIELD, FREQUENCY=1
*ELEMENT OUTPUT
S, LE
*OUTPUT, HISTORY, FREQUENCY=1
*ELEMENT OUTPUT, ELSET=EA
S11, LE11
*NODE PRINT, FREQUENCY=0
*EL PRINT, FREQUENCY=1
S11, LE11
*END STEP
