*HEADING
Single element test for step11_relax_0050
*NODE
1, 0., 0., 0.
2, 1., 0., 0.
3, 1., 1., 0.
4, 0., 1., 0.
5, 0., 0., 1.
6, 1., 0., 1.
7, 1., 1., 1.
8, 0., 1., 1.
*ELEMENT, TYPE=C3D8H, ELSET=EA
1, 1, 2, 3, 4, 5, 6, 7, 8
*SOLID SECTION, ELSET=EA, MATERIAL=PRF_model
1.
*Material, name=PRF_model
*Hyperelastic,  NeoHooke,  Moduli=instantaneous 
549.6, 0.0 
*Viscoelastic, Nonlinear, NetworkId=1, SRatio=0.337060, Law=strain 
4.8828e-7, 3.13398, -0.551660 
*Viscoelastic, Nonlinear, NetworkId=2, SRatio=0.150654, Law=strain 
2.4414e-6, 4.91992, -0.746191 
*Viscoelastic, Nonlinear, NetworkId=3, SRatio=0.372607, Law=strain 
7.81403e-5, 3.801953, -0.616699
*AMPLITUDE, NAME=AMP_STRAIN
0.000000e+00, 0.000000e+00, 1.440000e-01, 5.100130e-05, 2.860000e-01, 1.090059e-04, 4.260000e-01, 1.560122e-04
6.060000e-01, 2.190240e-04, 7.860000e-01, 2.780386e-04, 9.660000e-01, 3.480606e-04, 1.166000e+00, 4.100841e-04
1.366000e+00, 4.791147e-04, 1.566000e+00, 5.431475e-04, 1.766000e+00, 6.101861e-04, 1.966000e+00, 6.752279e-04
2.166000e+00, 7.472791e-04, 2.366000e+00, 8.083265e-04, 2.566000e+00, 8.813882e-04, 2.766000e+00, 9.454467e-04
2.966000e+00, 1.012512e-03, 3.166000e+00, 1.081584e-03, 3.366000e+00, 1.149660e-03, 3.566000e+00, 1.212735e-03
3.766000e+00, 1.286827e-03, 3.966000e+00, 1.347908e-03, 4.166000e+00, 1.415000e-03, 4.366000e+00, 1.476088e-03
4.566000e+00, 1.544191e-03, 4.766000e+00, 1.612298e-03, 4.966000e+00, 1.674400e-03, 5.166000e+00, 1.739511e-03
5.366000e+00, 1.806630e-03, 5.566000e+00, 1.870748e-03, 5.766000e+00, 1.940881e-03, 5.966000e+00, 2.002001e-03
6.166000e+00, 2.070140e-03, 6.366000e+00, 2.140287e-03, 6.566000e+00, 2.203424e-03, 6.766000e+00, 2.269572e-03
6.966000e+00, 2.340735e-03, 7.166000e+00, 2.400878e-03, 7.366000e+00, 2.468041e-03, 7.566000e+00, 2.534206e-03
7.766000e+00, 2.598370e-03, 7.966000e+00, 2.669557e-03, 8.166000e+00, 2.736738e-03, 8.366000e+00, 2.804926e-03
8.566000e+00, 2.874122e-03, 8.766000e+00, 2.938308e-03, 8.966000e+00, 3.011526e-03, 9.166000e+00, 3.073714e-03
9.366000e+00, 3.141926e-03, 9.566000e+00, 3.213151e-03, 9.766000e+00, 3.280369e-03, 9.966000e+00, 3.350601e-03
1.016600e+01, 3.416824e-03, 1.036600e+01, 3.482048e-03, 1.056600e+01, 3.554302e-03, 1.076600e+01, 3.619535e-03
1.096600e+01, 3.685776e-03, 1.116600e+01, 3.764066e-03, 1.136600e+01, 3.827305e-03, 1.156600e+01, 3.893560e-03
1.176600e+01, 3.968855e-03, 1.196600e+01, 4.036123e-03, 1.216600e+01, 4.107412e-03, 1.236600e+01, 4.178707e-03
1.256600e+01, 4.245989e-03, 1.276600e+01, 4.319301e-03, 1.296600e+01, 4.384584e-03, 1.316600e+01, 4.453889e-03
1.336600e+01, 4.532240e-03, 1.356600e+01, 4.595527e-03, 1.376600e+01, 4.665851e-03, 1.396600e+01, 4.738190e-03
1.416600e+01, 4.805510e-03, 1.436600e+01, 4.879868e-03, 1.456600e+01, 4.952222e-03, 1.476600e+01, 5.020561e-03
1.496600e+01, 5.024581e-03, 1.516600e+01, 5.023576e-03, 1.536600e+01, 5.022571e-03, 1.556600e+01, 5.026591e-03
** ... 84 like lines cut
*STEP, INC=100000, NLGEOM=YES
*VISCO
0.323366, 323.366, 1e-15, 16.1683
*BOUNDARY
1, 1, 3
4, 1, 1
4, 3, 3
8, 1, 1
5, 1, 2
2, 2, 3
6, 2, 2
2, 3, 3
3, 3, 3
*BOUNDARY, AMPLITUDE=AMP_STRAIN
2, 1, 1, 1.0
3, 1, 1, 1.0
6, 1, 1, 1.0
7, 1, 1, 1.0
*OUTPUT, FIELD, FREQUENCY=1
*ELEMENT OUTPUT
S, LE
*OUTPUT, HISTORY, FREQUENCY=1
*ELEMENT OUTPUT, ELSET=EA
S11, LE11
*NODE PRINT, FREQUENCY=0
*EL PRINT, FREQUENCY=1
S11, LE11
*END STEP
