*HEADING
Single element test for step11_relax_0150
*NODE
1, 0., 0., 0.
2, 1., 0., 0.
3, 1., 1., 0.
4, 0., 1., 0.
5, 0., 0., 1.
6, 1., 0., 1.
7, 1., 1., 1.
8, 0., 1., 1.
*ELEMENT, TYPE=C3D8H, ELSET=EA
1, 1, 2, 3, 4, 5, 6, 7, 8
*SOLID SECTION, ELSET=EA, MATERIAL=PRF_model
1.
*Material, name=PRF_model
*Hyperelastic,  NeoHooke,  Moduli=instantaneous 
549.6, 0.0 
*Viscoelastic, Nonlinear, NetworkId=1, SRatio=0.337060, Law=strain 
4.8828e-7, 3.13398, -0.551660 
*Viscoelastic, Nonlinear, NetworkId=2, SRatio=0.150654, Law=strain 
2.4414e-6, 4.91992, -0.746191 
*Viscoelastic, Nonlinear, NetworkId=3, SRatio=0.372607, Law=strain 
7.81403e-5, 3.801953, -0.616699
*AMPLITUDE, NAME=AMP_STRAIN
0.000000e+00, 0.000000e+00, 1.500000e-01, 5.800168e-05, 7.500000e-01, 2.650351e-04, 1.410000e+00, 4.831167e-04
2.370000e+00, 7.973177e-04, 3.370000e+00, 1.128636e-03, 4.370000e+00, 1.453055e-03, 5.370000e+00, 1.780583e-03
6.370000e+00, 2.115234e-03, 7.370000e+00, 2.445987e-03, 8.370000e+00, 2.786876e-03, 9.370000e+00, 3.134904e-03
1.037000e+01, 3.481045e-03, 1.137000e+01, 3.823290e-03, 1.237000e+01, 4.172681e-03, 1.337000e+01, 4.528222e-03
1.437000e+01, 4.886902e-03, 1.537000e+01, 5.251742e-03, 1.637000e+01, 5.622749e-03, 1.737000e+01, 5.994898e-03
1.837000e+01, 6.377249e-03, 1.937000e+01, 6.760751e-03, 2.037000e+01, 7.153465e-03, 2.137000e+01, 7.557414e-03
2.237000e+01, 7.966566e-03, 2.337000e+01, 8.387984e-03, 2.437000e+01, 8.808569e-03, 2.537000e+01, 9.232358e-03
2.637000e+01, 9.670460e-03, 2.737000e+01, 1.011380e-02, 2.837000e+01, 1.056138e-02, 2.937000e+01, 1.102635e-02
3.037000e+01, 1.149153e-02, 3.137000e+01, 1.196299e-02, 3.237000e+01, 1.244176e-02, 3.337000e+01, 1.292785e-02
3.437000e+01, 1.342329e-02, 3.537000e+01, 1.391999e-02, 3.637000e+01, 1.441389e-02, 3.737000e+01, 1.490803e-02
3.837000e+01, 1.516890e-02, 3.937000e+01, 1.521966e-02, 4.037000e+01, 1.525925e-02, 4.137000e+01, 1.529174e-02
4.237000e+01, 1.532118e-02, 4.337000e+01, 1.534555e-02, 4.437000e+01, 1.536891e-02, 4.537000e+01, 1.538211e-02
4.637000e+01, 1.539531e-02, 4.737000e+01, 1.541155e-02, 4.837000e+01, 1.542272e-02, 4.937000e+01, 1.543389e-02
5.037000e+01, 1.544811e-02, 5.137000e+01, 1.545420e-02, 5.237000e+01, 1.546943e-02, 5.337000e+01, 1.548060e-02
5.437000e+01, 1.548974e-02, 5.537000e+01, 1.549685e-02, 5.637000e+01, 1.550497e-02, 5.737000e+01, 1.551208e-02
5.837000e+01, 1.552021e-02, 5.937000e+01, 1.552224e-02, 6.037000e+01, 1.553138e-02, 6.137000e+01, 1.553544e-02
6.237000e+01, 1.553950e-02, 6.337000e+01, 1.554966e-02, 6.437000e+01, 1.555677e-02, 6.537000e+01, 1.555575e-02
6.637000e+01, 1.556387e-02, 6.737000e+01, 1.556489e-02, 6.837000e+01, 1.557403e-02, 6.937000e+01, 1.557606e-02
7.037000e+01, 1.557911e-02, 7.137000e+01, 1.558114e-02, 7.237000e+01, 1.558520e-02, 7.337000e+01, 1.559130e-02
7.437000e+01, 1.559434e-02, 7.537000e+01, 1.559434e-02, 7.637000e+01, 1.559840e-02, 7.737000e+01, 1.560044e-02
** ... 62 like lines cut
*STEP, INC=100000, NLGEOM=YES
*VISCO
0.32337, 323.37, 1e-15, 16.1685
*BOUNDARY
1, 1, 3
4, 1, 1
4, 3, 3
8, 1, 1
5, 1, 2
2, 2, 3
6, 2, 2
2, 3, 3
3, 3, 3
*BOUNDARY, AMPLITUDE=AMP_STRAIN
2, 1, 1, 1.0
3, 1, 1, 1.0
6, 1, 1, 1.0
7, 1, 1, 1.0
*OUTPUT, FIELD, FREQUENCY=1
*ELEMENT OUTPUT
S, LE
*OUTPUT, HISTORY, FREQUENCY=1
*ELEMENT OUTPUT, ELSET=EA
S11, LE11
*NODE PRINT, FREQUENCY=0
*EL PRINT, FREQUENCY=1
S11, LE11
*END STEP
