*HEADING
Single element test for test_prony_val
*NODE
1, 0., 0., 0.
2, 1., 0., 0.
3, 1., 1., 0.
4, 0., 1., 0.
5, 0., 0., 1.
6, 1., 0., 1.
7, 1., 1., 1.
8, 0., 1., 1.
*ELEMENT, TYPE=C3D8H, ELSET=EA
1, 1, 2, 3, 4, 5, 6, 7, 8
*SOLID SECTION, ELSET=EA, MATERIAL=Prony_model
1.
*Material, name=Prony_model
*Hyperelastic,  NeoHooke,  Moduli=instantaneous 
549.6, 1e-4 
*Viscoelastic, time=PRONY
0.2, 0.0, 0.5
0.1, 0.0, 2.0
0.1, 0.0, 10.0
*AMPLITUDE, NAME=AMP_STRAIN
0.000000e+00, 0.000000e+00, 1.111111e-01, 5.555556e-02, 2.222222e-01, 1.111111e-01, 3.333333e-01, 1.666667e-01
4.444444e-01, 2.222222e-01, 5.555556e-01, 2.777778e-01, 6.666667e-01, 3.333333e-01, 7.777778e-01, 3.888889e-01
8.888889e-01, 4.444444e-01, 1.000000e+00, 5.000000e-01, 1.100000e+00, 5.000000e-01, 1.328205e+00, 5.000000e-01
1.556410e+00, 5.000000e-01, 1.784615e+00, 5.000000e-01, 2.012821e+00, 5.000000e-01, 2.241026e+00, 5.000000e-01
2.469231e+00, 5.000000e-01, 2.697436e+00, 5.000000e-01, 2.925641e+00, 5.000000e-01, 3.153846e+00, 5.000000e-01
3.382051e+00, 5.000000e-01, 3.610256e+00, 5.000000e-01, 3.838462e+00, 5.000000e-01, 4.066667e+00, 5.000000e-01
4.294872e+00, 5.000000e-01, 4.523077e+00, 5.000000e-01, 4.751282e+00, 5.000000e-01, 4.979487e+00, 5.000000e-01
5.207692e+00, 5.000000e-01, 5.435897e+00, 5.000000e-01, 5.664103e+00, 5.000000e-01, 5.892308e+00, 5.000000e-01
6.120513e+00, 5.000000e-01, 6.348718e+00, 5.000000e-01, 6.576923e+00, 5.000000e-01, 6.805128e+00, 5.000000e-01
7.033333e+00, 5.000000e-01, 7.261538e+00, 5.000000e-01, 7.489744e+00, 5.000000e-01, 7.717949e+00, 5.000000e-01
7.946154e+00, 5.000000e-01, 8.174359e+00, 5.000000e-01, 8.402564e+00, 5.000000e-01, 8.630769e+00, 5.000000e-01
8.858974e+00, 5.000000e-01, 9.087179e+00, 5.000000e-01, 9.315385e+00, 5.000000e-01, 9.543590e+00, 5.000000e-01
9.771795e+00, 5.000000e-01, 1.000000e+01, 5.000000e-01
*STEP, INC=100000, NLGEOM=YES
*VISCO, CETOL=0.05
0.01, 10.0, 1e-8, 1.0
*BOUNDARY
1, 1, 3
4, 1, 1
4, 3, 3
8, 1, 1
5, 1, 2
2, 2, 3
6, 2, 2
2, 3, 3
3, 3, 3
*BOUNDARY, AMPLITUDE=AMP_STRAIN
2, 1, 1, 1.0
3, 1, 1, 1.0
6, 1, 1, 1.0
7, 1, 1, 1.0
*OUTPUT, FIELD, FREQUENCY=1
*ELEMENT OUTPUT
S, LE
*OUTPUT, HISTORY, FREQUENCY=1
*ELEMENT OUTPUT, ELSET=EA
S11, LE11
*END STEP
