*HEADING
Single element test for PRONY
*NODE
1, 0., 0., 0.
2, 1., 0., 0.
3, 1., 1., 0.
4, 0., 1., 0.
5, 0., 0., 1.
6, 1., 0., 1.
7, 1., 1., 1.
8, 0., 1., 1.
*ELEMENT, TYPE=C3D8H, ELSET=EA
1, 1, 2, 3, 4, 5, 6, 7, 8
*SOLID SECTION, ELSET=EA, MATERIAL=PRONY_MAT
1.
*MATERIAL, NAME=PRONY_MAT
*HYPERELASTIC, NEO HOOKE, MODULI=INSTANTANEOUS
549.6, 0.0
*VISCOELASTIC, TIME=PRONY
0.25, 0.0, 0.5
0.25, 0.0, 2.0
*AMPLITUDE, NAME=AMP_STRAIN
0.0, 0.0, 1.0, 0.1, 10.0, 0.1
*STEP, NLGEOM=YES
*VISCO
0.01, 10.0, 1e-5, 0.1
*BOUNDARY
1, 1, 3
4, 1, 1
4, 3, 3
8, 1, 1
5, 1, 2
2, 2, 3
6, 2, 2
2, 3, 3
3, 3, 3
*BOUNDARY, AMPLITUDE=AMP_STRAIN
2, 1, 1, 1.0
3, 1, 1, 1.0
6, 1, 1, 1.0
7, 1, 1, 1.0
*OUTPUT, FIELD, FREQUENCY=1
*ELEMENT OUTPUT
S, LE
*OUTPUT, HISTORY, FREQUENCY=1
*ELEMENT OUTPUT, ELSET=EA
S11, LE11
*NODE PRINT, FREQUENCY=0
*EL PRINT, FREQUENCY=1
S11, LE11
*END STEP
