*HEADING
simple tension, Ogden, incompressible, mullins effect
with plasticity; Uniaxial and biaxial test data for input
*Preprint, Model=yes
*NODE,NSET=one
1,
2,1.
3,1.,1.,
4,0.,1.,
5,0.,0.,1.
6,1.,0.,1.
7,1.,1.,1.
8,0.,1.,1.
*nset,nset=nx0
1,4,5,8
*nset,nset=ny0
1,2,5,6
*nset,nset=nz0
1,2,3,4
*nset,nset=nx1
2,3,6,7
*nset,nset=nrf1
1
*nset,nset=nu1
2
*ELEMENT,TYPE=C3D8H,ELSET=ONE
1,1,2,3,4,5,6,7,8
*SOLID SECTION,ELSET=ONE,MATERIAL=epdm
*MATERIAL,NAME=epdm
*HYPERELASTIC,marlow
*Uniaxial Test Data
       0.,        0.
 0.079199,  0.001036
 0.144411,  0.003734
 0.183326,  0.006788
 0.211147,  0.009614
 0.233061,  0.012087
 0.251309,  0.015536
 0.267177,  0.018107
 0.282051,  0.021016
 0.294929, 0.0225223
 0.307516, 0.0238127
 0.319599, 0.0252401
 0.331695, 0.0270867
 0.343835, 0.0284763
 0.355934, 0.0300167
 0.367559, 0.0311728
 0.378648, 0.0327656
 0.389625, 0.0345379
 0.401455, 0.0357769
 0.411671, 0.0374738
** ... 330 like lines cut
*Mullins Effect, TEST DATA INPUT, beta=0.1
*Uniaxial Test Data
   2.70026,   0.709657
   2.57597,   0.707732
   2.48716,   0.706306
   2.41284,   0.704138
   2.34581,   0.703077
   2.28406,   0.700787
   2.22663,   0.698363
   2.17351,   0.696168
   2.12354,   0.694772
    2.0761,    0.69282
   2.03155,   0.690827
   1.98948,   0.688274
   1.94876,   0.686469
   1.91069,    0.68445
   1.87346,   0.682092
   1.83863,   0.680426
    1.8044,    0.67808
   1.77233,   0.675627
   1.74147,    0.67351
   1.71192,   0.672015
** ... 287 like lines cut
*Uniaxial Test Data
   1.08038,   0.220582
   1.01235,   0.218852
  0.962934,   0.216267
   0.91986,   0.214294
  0.883038,   0.211367
  0.850257,   0.209165
  0.820509,   0.206937
  0.793588,   0.204365
   0.76883,   0.201471
  0.746297,   0.199187
  0.725115,    0.19632
  0.704841,   0.193016
  0.686124,   0.190872
  0.669173,   0.188508
  0.652566,   0.186413
  0.636933,   0.183302
  0.622312,   0.181665
  0.607969,   0.178407
  0.594298,   0.176504
  0.580629,   0.174101
** ... 64 like lines cut
*Uniaxial Test Data
  0.566369,  0.0715792
  0.509606,  0.0686083
  0.469037,  0.0655721
  0.434791,  0.0626527
  0.406651,  0.0599146
  0.379852,  0.0576226
  0.356276,  0.0545582
  0.334349,  0.0521161
   0.31384,  0.0491277
  0.294244,  0.0467003
  0.276363,  0.0438745
  0.258607,  0.0414091
  0.241557,  0.0385979
   0.22528,  0.0355393
  0.209261,  0.0329375
  0.193073,  0.0300367
   0.17745,  0.0271242
  0.161428,  0.0241299
  0.147043,    0.02127
  0.130778,  0.0183672
** ... 6 like lines cut
*Plastic
 0.287979,        0.
 0.600347, 0.0233561
  1.29385, 0.0586462
  4.61651,  0.156991
  52.3531,   1.56991
*amplitude,name=nominal_strain
0.0,0.0, 10.,0.1, 20.,0.025, 40.,0.3,
60.,0.07, 80.,1.0, 100.0,0.18
*STEP,NLGEOM,INC=2000
*STATIC
1.0,100.0,,1.
*BOUNDARY
nx0,1,1
ny0,2,2
nz0,3,3
*boundary, amplitude=nominal_strain
nx1,1,1,1.0
*output,field,freq=300
*node output
u
*output,history,freq=1
*node output,nset=nrf1
rf1
*node output,nset=nu1
u1
*END STEP
