*Heading
 load / unload of 3 unit cubes
** Job name: Unit_cubes Model name: Unit_Cubes
** Generated by: Abaqus/CAE 6.14-1
*Preprint, echo=NO, model=NO, history=NO, contact=NO
**
** PARTS
**
*Part, name=PART-1
*Node
      1,           0.,           0.,           0.
      2,           1.,           0.,           0.
      3,           1.,           1.,           0.
      4,           0.,           1.,           0.
      5,           0.,           0.,           1.
      6,           1.,           0.,           1.
      7,           1.,           1.,           1.
      8,           0.,           1.,           1.
    501,           3.,           0.,           0.
    502,           4.,           0.,           0.
    503,           4.,           1.,           0.
    504,           3.,           1.,           0.
    505,           3.,           0.,           1.
    506,           4.,           0.,           1.
    507,           4.,           1.,           1.
    508,           3.,           1.,           1.
   1001,           5.,           0.,           0.
   1002,           6.,           0.,           0.
   1003,           6.,           1.,           0.
   1004,           5.,           1.,           0.
** ... 4 like lines cut
*Element, type=C3D8H
   1,    1,    2,    3,    4,    5,    6,    7,    8
 501,  501,  502,  503,  504,  505,  506,  507,  508
1001, 1001, 1002, 1003, 1004, 1005, 1006, 1007, 1008
*Elset, elset=POLY_N2, generate
    1,  1001,   500
** Section: Section-1-POLY_N2
*Solid Section, elset=POLY_N2, material=FILLED_RUBBER
1.,
*End Part
**  
**
** ASSEMBLY
**
*Assembly, name=Assembly
**  
*Instance, name=PART-1-1, part=PART-1
*End Instance
**  
*Nset, nset=BIAXIALEQN1_0, instance=PART-1-1
 5, 7, 8
*Nset, nset=BIAXIALEQN2_0, instance=PART-1-1
 2, 3, 7
*Nset, nset=BIAXIALLOAD, instance=PART-1-1
 6,
*Nset, nset=BIAXIALLOAD_0, instance=PART-1-1
 6,
*Nset, nset=PLANAREQN1_0, instance=PART-1-1, generate
 1006,  1008,     1
*Nset, nset=PLANARLOAD, instance=PART-1-1
 1005,
*Nset, nset=PLANARLOAD_0, instance=PART-1-1
 1005,
*Nset, nset=UNIAXIALEQN1_0, instance=PART-1-1, generate
 506,  508,    1
*Nset, nset=UNIAXIALLOAD, instance=PART-1-1
 505,
*Nset, nset=UNIAXIALLOAD_0, instance=PART-1-1
 505,
*Nset, nset=_M13, internal, instance=PART-1-1
    3,    4,  502,  503,  504, 1003, 1004
*Nset, nset=_M14, internal, instance=PART-1-1
 2,
*Nset, nset=_M15, internal, instance=PART-1-1
    1,  501, 1001, 1002
*Nset, nset=_M16, internal, instance=PART-1-1
 5,
*Nset, nset=_M17, internal, instance=PART-1-1
    4,    8,  504,  508, 1003, 1004, 1005, 1006, 1007, 1008
** Constraint: Eqn-1
*Equation
2
UNIAXIALEQN1_0, 3, 1.
UNIAXIALLOAD_0, 3, -1.
** Constraint: Eqn-2
*Equation
2
PLANAREQN1_0, 3, 1.
PLANARLOAD_0, 3, -1.
** Constraint: Eqn-3
*Equation
2
BIAXIALEQN1_0, 3, 1.
BIAXIALLOAD_0, 3, -1.
** Constraint: Eqn-4
*Equation
2
BIAXIALEQN2_0, 1, 1.
BIAXIALLOAD_0, 1, -1.
*End Assembly
*Amplitude, name=AMP-1
             0.,              0.,              1.,             0.1,              2.,              0.,              3.,            0.25
             4.,              0.,              5.,             0.4,              6.,              0.,              7.,             0.6
             8.,              0.,              9.,              1.,             10.,              0.
** 
** MATERIALS
** 
**  --------------------------------------------- End Assembly
*Material, name=FILLED_RUBBER
*Hyperelastic, marlow
*Uniaxial Test Data
       0.,   0.
 0.466667, 0.02
 0.946667, 0.06
  1.33333, 0.11
  1.89333,  0.2
  2.35667, 0.26
  2.87667, 0.34
    3.195, 0.41
     3.73,  0.5
  4.27033, 0.58
  4.75333, 0.64
  5.32778,  0.7
  5.87556, 0.76
  6.43667, 0.82
   7.2313, 0.89
  8.34667,   1.
*Mullins Effect
 2.225,  0.16945, 0.100417
*Plastic
 5.3628,   0.
  11.52, 0.04
** ----------------------------------------------------------------
** 
** STEP: Step-1
** 
*Step, name=Step-1, nlgeom=YES, inc=2000
*Static
0.1, 10., 0.0001, 0.1
** 
** BOUNDARY CONDITIONS
** 
** Name: Disp-BC-1 Type: Displacement/Rotation
*Boundary, amplitude=AMP-1
BIAXIALLOAD, 1, 1, 1.
** Name: Disp-BC-2 Type: Displacement/Rotation
*Boundary, amplitude=AMP-1
BIAXIALLOAD, 3, 3, 1.
** Name: Disp-BC-3 Type: Displacement/Rotation
*Boundary
UNIAXIALLOAD, 1, 1
** Name: Disp-BC-4 Type: Displacement/Rotation
*Boundary, amplitude=AMP-1
UNIAXIALLOAD, 3, 3, 1.
** Name: Disp-BC-5 Type: Displacement/Rotation
*Boundary, amplitude=AMP-1
PLANARLOAD, 3, 3, 1.
** Name: Disp-BC-6 Type: Displacement/Rotation
*Boundary
_M13, 3, 3
** Name: Disp-BC-7 Type: Displacement/Rotation
*Boundary
_M14, 2, 2
** Name: Disp-BC-8 Type: Displacement/Rotation
*Boundary
_M14, 3, 3
** Name: Disp-BC-9 Type: Displacement/Rotation
*Boundary
_M15, 1, 1
** Name: Disp-BC-10 Type: Displacement/Rotation
*Boundary
_M15, 2, 2
** Name: Disp-BC-11 Type: Displacement/Rotation
*Boundary
_M15, 3, 3
** Name: Disp-BC-12 Type: Displacement/Rotation
*Boundary
_M16, 1, 1
** Name: Disp-BC-13 Type: Displacement/Rotation
*Boundary
_M16, 2, 2
** Name: Disp-BC-14 Type: Displacement/Rotation
*Boundary
_M17, 1, 1
** 
** OUTPUT REQUESTS
** 
*Restart, write, frequency=0
*Print, solve=NO
** 
** FIELD OUTPUT: F-Output-1
** 
*Output, field
*Node Output
U, 
** 
** HISTORY OUTPUT: H-Output-1
** 
*Output, history
*Node Output, nset=BIAXIALLOAD
RF3, U3
** 
** HISTORY OUTPUT: H-Output-2
** 
*Node Output, nset=PLANARLOAD
RF3, U3
** 
** HISTORY OUTPUT: H-Output-3
** 
*Node Output, nset=UNIAXIALLOAD
RF3, U3
*End Step
