*HEADING
*PREPRINT,ECHO=NO,MODEL=YES
**
*Node
1, 0., 0., 0.
*Element, type=mass, elset=mass
1, 1
*Mass, elset=mass
1.,
**
**
**Material definition for the  VISCOELASTIC material model
**
*MATERIAL, NAME=VISCOELASTIC
** dummy elastic part
*ELASTIC, MODULI=INSTANTANEOUS
1.
*VISCOELASTIC, TIME=RELAXATION TEST DATA, ERRTOL=0.01, NMAX=13
*SHEAR TEST DATA
1.0,9.0
0.9983299,17.0
0.9954071,29.0
0.9903967,52.0
0.9903967,93.0
0.9816284,166.0
0.9670146,295.0
0.9440501,525.0
0.9098121,933.0
0.8655532,1660.0
0.8208768,2952.0
0.7887265,5247.0
0.7887265,5250.0
0.7707724,9284.0
0.7707724,9337.0
0.7532359,16549.0
0.7532359,16600.0
0.7248434,29466.0
0.6793319,52878.0
0.6125261,94049.0
** ... 46 like lines cut
**
**Dummy Step
**
*STEP, NLGEOM
*STATIC
1.,1.
*End Step
